#======================================================
# CRYSTAL DATA                                         
# Prepared by: Dil Limbu, NJIT                         
#------------------------------------------------------
                                                       
data_MOFs_structure                                    
                                                       
_chemical_name_common            CuHHTP_Bulk 
_chemical_formula_sum            'Cu6-O24-C72-H24' 
_cell_length_a                      21.803277 
_cell_length_b                      21.745820 
_cell_length_c                       6.565064 
_cell_angle_alpha                   90.000000 
_cell_angle_beta                    90.000000 
_cell_angle_gamma                  120.009736 
_cell_volume                      2695.407921 
_space_group_name_H-M_alt          'P 1' 
_space_group_IT_number              1 
_symmetry_cell_setting              ? 
_symmetry_space_group_name_H-M      ? 

loop_
_symmetry_equiv_pos_as_xyz
   x,y,z

loop_ 
   _atom_site_label
   _atom_site_type_symbol
   _atom_site_fract_x
   _atom_site_fract_y
   _atom_site_fract_z
   _atom_site_U_iso_or_equiv
   _atom_site_adp_type
   _atom_site_occupancy
   Cu1      Cu       0.482080      0.414284      0.192308  	        0.0000   Usio   1.0
   Cu2      Cu       0.507055      0.927595      0.192308  	        0.0000   Usio   1.0
   Cu3      Cu       0.995371      0.438903      0.192308  	        0.0000   Usio   1.0
   Cu4      Cu       0.496638      0.519489      0.692308  	        0.0000   Usio   1.0
   Cu5      Cu       0.472632      0.006673      0.692308  	        0.0000   Usio   1.0
   Cu6      Cu       0.983868      0.495888      0.692308  	        0.0000   Usio   1.0
   O1       O        0.407579      0.853749      0.192308  	        0.0000   Usio   1.0
   O2       O        0.526467      0.849218      0.192308  	        0.0000   Usio   1.0
   O3       O        0.073133      0.536864      0.192308  	        0.0000   Usio   1.0
   O4       O        0.068950      0.413686      0.192308  	        0.0000   Usio   1.0
   O5       O        0.384510      0.395292      0.192308  	        0.0000   Usio   1.0
   O6       O        0.508406      0.513534      0.192308  	        0.0000   Usio   1.0
   O7       O        0.921834      0.340392      0.192308  	        0.0000   Usio   1.0
   O8       O        0.917611      0.459293      0.192308  	        0.0000   Usio   1.0
   O9       O        0.604531      0.005894      0.192308  	        0.0000   Usio   1.0
   O10      O        0.481078      0.001011      0.192308  	        0.0000   Usio   1.0
   O11      O        0.463352      0.316849      0.192308  	        0.0000   Usio   1.0
   O12      O        0.581941      0.440837      0.192308  	        0.0000   Usio   1.0
   O13      O        0.375152      0.928496      0.692308  	        0.0000   Usio   1.0
   O14      O        0.498518      0.933173      0.692308  	        0.0000   Usio   1.0
   O15      O        0.057498      0.594373      0.692308  	        0.0000   Usio   1.0
   O16      O        0.061503      0.475335      0.692308  	        0.0000   Usio   1.0
   O17      O        0.396816      0.493066      0.692308  	        0.0000   Usio   1.0
   O18      O        0.515519      0.616952      0.692308  	        0.0000   Usio   1.0
   O19      O        0.906215      0.397898      0.692308  	        0.0000   Usio   1.0
   O20      O        0.910175      0.520976      0.692308  	        0.0000   Usio   1.0
   O21      O        0.572083      0.080614      0.692308  	        0.0000   Usio   1.0
   O22      O        0.453072      0.084933      0.692308  	        0.0000   Usio   1.0
   O23      O        0.470429      0.420260      0.692308  	        0.0000   Usio   1.0
   O24      O        0.594224      0.538636      0.692308  	        0.0000   Usio   1.0
   C1       C        0.324472      0.524862      0.192308  	        0.0000   Usio   1.0
   C2       C        0.393050      0.590323      0.192308  	        0.0000   Usio   1.0
   C3       C        0.396762      0.658666      0.192308  	        0.0000   Usio   1.0
   C4       C        0.331585      0.661991      0.192308  	        0.0000   Usio   1.0
   C5       C        0.263009      0.597610      0.192308  	        0.0000   Usio   1.0
   C6       C        0.259644      0.528771      0.192308  	        0.0000   Usio   1.0
   C7       C        0.321826      0.459380      0.192308  	        0.0000   Usio   1.0
   C8       C        0.383814      0.454412      0.192308  	        0.0000   Usio   1.0
   C9       C        0.452138      0.519965      0.192308  	        0.0000   Usio   1.0
   C10      C        0.454778      0.585562      0.192308  	        0.0000   Usio   1.0
   C11      C        0.462526      0.722008      0.192308  	        0.0000   Usio   1.0
   C12      C        0.467488      0.788800      0.192308  	        0.0000   Usio   1.0
   C13      C        0.401763      0.791617      0.192308  	        0.0000   Usio   1.0
   C14      C        0.336293      0.728425      0.192308  	        0.0000   Usio   1.0
   C15      C        0.200153      0.600372      0.192308  	        0.0000   Usio   1.0
   C16      C        0.133627      0.538555      0.192308  	        0.0000   Usio   1.0
   C17      C        0.130637      0.469678      0.192308  	        0.0000   Usio   1.0
   C18      C        0.193943      0.467142      0.192308  	        0.0000   Usio   1.0
   C19      C        0.593929      0.257653      0.192308  	        0.0000   Usio   1.0
   C20      C        0.659065      0.326272      0.192308  	        0.0000   Usio   1.0
   C21      C        0.727579      0.330305      0.192308  	        0.0000   Usio   1.0
   C22      C        0.730771      0.264800      0.192308  	        0.0000   Usio   1.0
   C23      C        0.665987      0.196197      0.192308  	        0.0000   Usio   1.0
   C24      C        0.597464      0.193111      0.192308  	        0.0000   Usio   1.0
   C25      C        0.527987      0.254667      0.192308  	        0.0000   Usio   1.0
   C26      C        0.522702      0.316099      0.192308  	        0.0000   Usio   1.0
   C27      C        0.588179      0.384791      0.192308  	        0.0000   Usio   1.0
   C28      C        0.653963      0.387661      0.192308  	        0.0000   Usio   1.0
   C29      C        0.790643      0.395906      0.192308  	        0.0000   Usio   1.0
   C30      C        0.857098      0.400365      0.192308  	        0.0000   Usio   1.0
   C31      C        0.859927      0.334459      0.192308  	        0.0000   Usio   1.0
   C32      C        0.796695      0.268865      0.192308  	        0.0000   Usio   1.0
   C33      C        0.667986      0.132860      0.192308  	        0.0000   Usio   1.0
   C34      C        0.605772      0.066039      0.192308  	        0.0000   Usio   1.0
   C35      C        0.537630      0.063504      0.192308  	        0.0000   Usio   1.0
   C36      C        0.535486      0.126750      0.192308  	        0.0000   Usio   1.0
   C37      C        0.320030      0.607930      0.692308  	        0.0000   Usio   1.0
   C38      C        0.385242      0.676484      0.692308  	        0.0000   Usio   1.0
   C39      C        0.381847      0.741104      0.692308  	        0.0000   Usio   1.0
   C40      C        0.313399      0.738149      0.692308  	        0.0000   Usio   1.0
   C41      C        0.248529      0.669628      0.692308  	        0.0000   Usio   1.0
   C42      C        0.251579      0.604048      0.692308  	        0.0000   Usio   1.0
   C43      C        0.324974      0.546446      0.692308  	        0.0000   Usio   1.0
   C44      C        0.390685      0.549169      0.692308  	        0.0000   Usio   1.0
   C45      C        0.456238      0.617799      0.692308  	        0.0000   Usio   1.0
   C46      C        0.451105      0.679341      0.692308  	        0.0000   Usio   1.0
   C47      C        0.443909      0.807398      0.692308  	        0.0000   Usio   1.0
   C48      C        0.441903      0.870722      0.692308  	        0.0000   Usio   1.0
   C49      C        0.373814      0.868299      0.692308  	        0.0000   Usio   1.0
   C50      C        0.311534      0.801556      0.692308  	        0.0000   Usio   1.0
   C51      C        0.182673      0.665710      0.692308  	        0.0000   Usio   1.0
   C52      C        0.119359      0.600188      0.692308  	        0.0000   Usio   1.0
   C53      C        0.122060      0.534201      0.692308  	        0.0000   Usio   1.0
   C54      C        0.188445      0.538517      0.692308  	        0.0000   Usio   1.0
   C55      C        0.586081      0.343811      0.692308  	        0.0000   Usio   1.0
   C56      C        0.654600      0.409357      0.692308  	        0.0000   Usio   1.0
   C57      C        0.719497      0.405587      0.692308  	        0.0000   Usio   1.0
   C58      C        0.716275      0.336822      0.692308  	        0.0000   Usio   1.0
   C59      C        0.647767      0.272353      0.692308  	        0.0000   Usio   1.0
   C60      C        0.582522      0.275540      0.692308  	        0.0000   Usio   1.0
   C61      C        0.524270      0.348425      0.692308  	        0.0000   Usio   1.0
   C62      C        0.526762      0.413951      0.692308  	        0.0000   Usio   1.0
   C63      C        0.595028      0.479583      0.692308  	        0.0000   Usio   1.0
   C64      C        0.657099      0.474763      0.692308  	        0.0000   Usio   1.0
   C65      C        0.785150      0.467301      0.692308  	        0.0000   Usio   1.0
   C66      C        0.848519      0.464904      0.692308  	        0.0000   Usio   1.0
   C67      C        0.845665      0.396103      0.692308  	        0.0000   Usio   1.0
   C68      C        0.779212      0.334213      0.692308  	        0.0000   Usio   1.0
   C69      C        0.643193      0.205972      0.692308  	        0.0000   Usio   1.0
   C70      C        0.577788      0.142708      0.692308  	        0.0000   Usio   1.0
   C71      C        0.512000      0.145402      0.692308  	        0.0000   Usio   1.0
   C72      C        0.516825      0.212125      0.692308  	        0.0000   Usio   1.0
   H1       H        0.289536      0.734275      0.192308  	        0.0000   Usio   1.0
   H2       H        0.512152      0.721475      0.192308  	        0.0000   Usio   1.0
   H3       H        0.200605      0.650671      0.192308  	        0.0000   Usio   1.0
   H4       H        0.188211      0.414519      0.192308  	        0.0000   Usio   1.0
   H5       H        0.507363      0.632431      0.192308  	        0.0000   Usio   1.0
   H6       H        0.271896      0.409410      0.192308  	        0.0000   Usio   1.0
   H7       H        0.802105      0.221799      0.192308  	        0.0000   Usio   1.0
   H8       H        0.790527      0.445940      0.192308  	        0.0000   Usio   1.0
   H9       H        0.717765      0.132637      0.192308  	        0.0000   Usio   1.0
   H10      H        0.483058      0.121226      0.192308  	        0.0000   Usio   1.0
   H11      H        0.700613      0.440501      0.192308  	        0.0000   Usio   1.0
   H12      H        0.478505      0.204260      0.192308  	        0.0000   Usio   1.0
   H13      H        0.261811      0.801893      0.692308  	        0.0000   Usio   1.0
   H14      H        0.496298      0.812813      0.692308  	        0.0000   Usio   1.0
   H15      H        0.177379      0.712844      0.692308  	        0.0000   Usio   1.0
   H16      H        0.188445      0.488429      0.692308  	        0.0000   Usio   1.0
   H17      H        0.500651      0.729671      0.692308  	        0.0000   Usio   1.0
   H18      H        0.278260      0.493661      0.692308  	        0.0000   Usio   1.0
   H19      H        0.778870      0.283965      0.692308  	        0.0000   Usio   1.0
   H20      H        0.790757      0.519878      0.692308  	        0.0000   Usio   1.0
   H21      H        0.690025      0.200247      0.692308  	        0.0000   Usio   1.0
   H22      H        0.467147      0.212553      0.692308  	        0.0000   Usio   1.0
   H23      H        0.706966      0.524797      0.692308  	        0.0000   Usio   1.0
   H24      H        0.471738      0.301492      0.692308  	        0.0000   Usio   1.0
